Circuit: *NOR gate

Instance "m5": Length shorter than recommended for a level 1 MOSFET.
Instance "m5": Width narrower than recommended for a level 1 MOSFET.
Instance "m3": Length shorter than recommended for a level 1 MOSFET.
Instance "m3": Width narrower than recommended for a level 1 MOSFET.
Instance "m6": Length shorter than recommended for a level 1 MOSFET.
Instance "m6": Width narrower than recommended for a level 1 MOSFET.
Instance "m4": Length shorter than recommended for a level 1 MOSFET.
Instance "m4": Width narrower than recommended for a level 1 MOSFET.
Instance "m2": Length shorter than recommended for a level 1 MOSFET.
Instance "m2": Width narrower than recommended for a level 1 MOSFET.
Instance "m1": Length shorter than recommended for a level 1 MOSFET.
Instance "m1": Width narrower than recommended for a level 1 MOSFET.
Direct Newton iteration for .op point succeeded.

Date: Fri May 14 09:08:49 2021
Total elapsed time: 0.211 seconds.

tnom = 27
temp = 27
method = modified trap
totiter = 3168
traniter = 3158
tranpoints = 1433
accept = 1330
rejected = 103
matrix size = 11
fillins = 0
solver = Normal
Matrix Compiler1: 512 bytes object code size  0.9/0.3/[0.1]
Matrix Compiler2: 903 bytes object code size  0.9/0.4/[0.2]

