Circuit: *1bit ALU using different design styles

WARNING: Node 1:6 is floating.

WARNING: Less than two connections to node 3:6.  This node is used by M:3:1.
Instance "m:5:12": Length shorter than recommended for a level 1 MOSFET.
Instance "m:5:12": Width narrower than recommended for a level 1 MOSFET.
Instance "m:5:11": Length shorter than recommended for a level 1 MOSFET.
Instance "m:5:11": Width narrower than recommended for a level 1 MOSFET.
Instance "m:5:10": Length shorter than recommended for a level 1 MOSFET.
Instance "m:5:10": Width narrower than recommended for a level 1 MOSFET.
Instance "m:5:9": Length shorter than recommended for a level 1 MOSFET.
Instance "m:5:9": Width narrower than recommended for a level 1 MOSFET.
Instance "m:5:8": Length shorter than recommended for a level 1 MOSFET.
Instance "m:5:8": Width narrower than recommended for a level 1 MOSFET.
Instance "m:5:7": Length shorter than recommended for a level 1 MOSFET.
Instance "m:5:7": Width narrower than recommended for a level 1 MOSFET.
Instance "m:5:6": Length shorter than recommended for a level 1 MOSFET.
Instance "m:5:6": Width narrower than recommended for a level 1 MOSFET.
Instance "m:5:5": Length shorter than recommended for a level 1 MOSFET.
Instance "m:5:5": Width narrower than recommended for a level 1 MOSFET.
Instance "m:5:4": Length shorter than recommended for a level 1 MOSFET.
Instance "m:5:4": Width narrower than recommended for a level 1 MOSFET.
Instance "m:5:2": Length shorter than recommended for a level 1 MOSFET.
Instance "m:5:2": Width narrower than recommended for a level 1 MOSFET.
Instance "m:5:3": Length shorter than recommended for a level 1 MOSFET.
Instance "m:5:3": Width narrower than recommended for a level 1 MOSFET.
Instance "m:5:1": Length shorter than recommended for a level 1 MOSFET.
Instance "m:5:1": Width narrower than recommended for a level 1 MOSFET.
Instance "m:4:8": Length shorter than recommended for a level 1 MOSFET.
Instance "m:4:8": Width narrower than recommended for a level 1 MOSFET.
Instance "m:4:6": Length shorter than recommended for a level 1 MOSFET.
Instance "m:4:6": Width narrower than recommended for a level 1 MOSFET.
Instance "m:4:4": Length shorter than recommended for a level 1 MOSFET.
Instance "m:4:4": Width narrower than recommended for a level 1 MOSFET.
Instance "m:4:2": Length shorter than recommended for a level 1 MOSFET.
Instance "m:4:2": Width narrower than recommended for a level 1 MOSFET.
Instance "m:4:7": Length shorter than recommended for a level 1 MOSFET.
Instance "m:4:7": Width narrower than recommended for a level 1 MOSFET.
Instance "m:4:5": Length shorter than recommended for a level 1 MOSFET.
Instance "m:4:5": Width narrower than recommended for a level 1 MOSFET.
Instance "m:4:3": Length shorter than recommended for a level 1 MOSFET.
Instance "m:4:3": Width narrower than recommended for a level 1 MOSFET.
Instance "m:4:1": Length shorter than recommended for a level 1 MOSFET.
Instance "m:4:1": Width narrower than recommended for a level 1 MOSFET.
Instance "m:3:5": Length shorter than recommended for a level 1 MOSFET.
Instance "m:3:5": Width narrower than recommended for a level 1 MOSFET.
Instance "m:3:3": Length shorter than recommended for a level 1 MOSFET.
Instance "m:3:3": Width narrower than recommended for a level 1 MOSFET.
Instance "m:3:6": Length shorter than recommended for a level 1 MOSFET.
Instance "m:3:6": Width narrower than recommended for a level 1 MOSFET.
Instance "m:3:4": Length shorter than recommended for a level 1 MOSFET.
Instance "m:3:4": Width narrower than recommended for a level 1 MOSFET.
Instance "m:3:2": Length shorter than recommended for a level 1 MOSFET.
Instance "m:3:2": Width narrower than recommended for a level 1 MOSFET.
Instance "m:3:1": Length shorter than recommended for a level 1 MOSFET.
Instance "m:3:1": Width narrower than recommended for a level 1 MOSFET.
Instance "m:2:6": Length shorter than recommended for a level 1 MOSFET.
Instance "m:2:6": Width narrower than recommended for a level 1 MOSFET.
Instance "m:2:4": Length shorter than recommended for a level 1 MOSFET.
Instance "m:2:4": Width narrower than recommended for a level 1 MOSFET.
Instance "m:2:2": Length shorter than recommended for a level 1 MOSFET.
Instance "m:2:2": Width narrower than recommended for a level 1 MOSFET.
Instance "m:2:5": Length shorter than recommended for a level 1 MOSFET.
Instance "m:2:5": Width narrower than recommended for a level 1 MOSFET.
Instance "m:2:3": Length shorter than recommended for a level 1 MOSFET.
Instance "m:2:3": Width narrower than recommended for a level 1 MOSFET.
Instance "m:2:1": Length shorter than recommended for a level 1 MOSFET.
Instance "m:2:1": Width narrower than recommended for a level 1 MOSFET.
Instance "m:1:28": Length shorter than recommended for a level 1 MOSFET.
Instance "m:1:28": Width narrower than recommended for a level 1 MOSFET.
Instance "m:1:26": Length shorter than recommended for a level 1 MOSFET.
Instance "m:1:26": Width narrower than recommended for a level 1 MOSFET.
Instance "m:1:25": Length shorter than recommended for a level 1 MOSFET.
Instance "m:1:25": Width narrower than recommended for a level 1 MOSFET.
Instance "m:1:24": Length shorter than recommended for a level 1 MOSFET.
Instance "m:1:24": Width narrower than recommended for a level 1 MOSFET.
Instance "m:1:23": Length shorter than recommended for a level 1 MOSFET.
Instance "m:1:23": Width narrower than recommended for a level 1 MOSFET.
Instance "m:1:22": Length shorter than recommended for a level 1 MOSFET.
Instance "m:1:22": Width narrower than recommended for a level 1 MOSFET.
Instance "m:1:21": Length shorter than recommended for a level 1 MOSFET.
Instance "m:1:21": Width narrower than recommended for a level 1 MOSFET.
Instance "m:1:20": Length shorter than recommended for a level 1 MOSFET.
Instance "m:1:20": Width narrower than recommended for a level 1 MOSFET.
Instance "m:1:12": Length shorter than recommended for a level 1 MOSFET.
Instance "m:1:12": Width narrower than recommended for a level 1 MOSFET.
Instance "m:1:10": Length shorter than recommended for a level 1 MOSFET.
Instance "m:1:10": Width narrower than recommended for a level 1 MOSFET.
Instance "m:1:9": Length shorter than recommended for a level 1 MOSFET.
Instance "m:1:9": Width narrower than recommended for a level 1 MOSFET.
Instance "m:1:8": Length shorter than recommended for a level 1 MOSFET.
Instance "m:1:8": Width narrower than recommended for a level 1 MOSFET.
Instance "m:1:7": Length shorter than recommended for a level 1 MOSFET.
Instance "m:1:7": Width narrower than recommended for a level 1 MOSFET.
Instance "m:1:6": Length shorter than recommended for a level 1 MOSFET.
Instance "m:1:6": Width narrower than recommended for a level 1 MOSFET.
Instance "m:1:27": Length shorter than recommended for a level 1 MOSFET.
Instance "m:1:27": Width narrower than recommended for a level 1 MOSFET.
Instance "m:1:19": Length shorter than recommended for a level 1 MOSFET.
Instance "m:1:19": Width narrower than recommended for a level 1 MOSFET.
Instance "m:1:18": Length shorter than recommended for a level 1 MOSFET.
Instance "m:1:18": Width narrower than recommended for a level 1 MOSFET.
Instance "m:1:17": Length shorter than recommended for a level 1 MOSFET.
Instance "m:1:17": Width narrower than recommended for a level 1 MOSFET.
Instance "m:1:16": Length shorter than recommended for a level 1 MOSFET.
Instance "m:1:16": Width narrower than recommended for a level 1 MOSFET.
Instance "m:1:15": Length shorter than recommended for a level 1 MOSFET.
Instance "m:1:15": Width narrower than recommended for a level 1 MOSFET.
Instance "m:1:14": Length shorter than recommended for a level 1 MOSFET.
Instance "m:1:14": Width narrower than recommended for a level 1 MOSFET.
Instance "m:1:13": Length shorter than recommended for a level 1 MOSFET.
Instance "m:1:13": Width narrower than recommended for a level 1 MOSFET.
Instance "m:1:11": Length shorter than recommended for a level 1 MOSFET.
Instance "m:1:11": Width narrower than recommended for a level 1 MOSFET.
Instance "m:1:5": Length shorter than recommended for a level 1 MOSFET.
Instance "m:1:5": Width narrower than recommended for a level 1 MOSFET.
Instance "m:1:4": Length shorter than recommended for a level 1 MOSFET.
Instance "m:1:4": Width narrower than recommended for a level 1 MOSFET.
Instance "m:1:3": Length shorter than recommended for a level 1 MOSFET.
Instance "m:1:3": Width narrower than recommended for a level 1 MOSFET.
Instance "m:1:2": Length shorter than recommended for a level 1 MOSFET.
Instance "m:1:2": Width narrower than recommended for a level 1 MOSFET.
Instance "m:1:1": Length shorter than recommended for a level 1 MOSFET.
Instance "m:1:1": Width narrower than recommended for a level 1 MOSFET.
Direct Newton iteration for .op point succeeded.
Changing Tseed to 7.8125e-012
Changing Tseed to 7.8125e-014

Date: Fri May 14 09:24:48 2021
Total elapsed time: 0.620 seconds.

tnom = 27
temp = 27
method = modified trap
totiter = 10310
traniter = 10264
tranpoints = 2856
accept = 2436
rejected = 418
matrix size = 44
fillins = 15
solver = Normal
Thread vector: 39.1/12.1[4] 23.5/8.0[4] 4.5/4.9[1] 0.5/3.8[1]  2592/500
Matrix Compiler1: 4.61 KB object code size  3.3/1.6/[0.8]
Matrix Compiler2: 5.98 KB object code size  1.7/2.3/[0.4]

